
  Mrv1909 11171900382D          

 45 48  0  0  0  0            999 V2000
   -6.3822   -0.4136    0.0000 C   0  0  0  0  0  0  0  0  0  0  0  0
   -6.3822    0.4113    0.0000 C   0  0  0  0  0  0  0  0  0  0  0  0
   -5.6677    0.8239    0.0000 C   0  0  0  0  0  0  0  0  0  0  0  0
   -4.9531    0.4113    0.0000 C   0  0  0  0  0  0  0  0  0  0  0  0
   -4.9531   -0.4136    0.0000 C   0  0  0  0  0  0  0  0  0  0  0  0
   -5.6677   -0.8262    0.0000 C   0  0  0  0  0  0  0  0  0  0  0  0
   -4.2386    0.8239    0.0000 C   0  0  0  0  0  0  0  0  0  0  0  0
   -3.5241    0.4113    0.0000 C   0  0  0  0  0  0  0  0  0  0  0  0
   -3.5241   -0.4136    0.0000 C   0  0  1  0  0  0  0  0  0  0  0  0
   -4.2386   -0.8262    0.0000 C   0  0  1  0  0  0  0  0  0  0  0  0
   -2.8095    0.8239    0.0000 C   0  0  0  0  0  0  0  0  0  0  0  0
   -2.0950    0.4113    0.0000 C   0  0  1  0  0  0  0  0  0  0  0  0
   -2.0950   -0.4136    0.0000 C   0  0  1  0  0  0  0  0  0  0  0  0
   -2.8095   -0.8262    0.0000 C   0  0  0  0  0  0  0  0  0  0  0  0
   -1.3805    0.8239    0.0000 C   0  0  0  0  0  0  0  0  0  0  0  0
   -0.6658    0.4113    0.0000 C   0  0  0  0  0  0  0  0  0  0  0  0
   -0.6658   -0.4136    0.0000 C   0  0  0  0  0  0  0  0  0  0  0  0
   -1.3805   -0.8262    0.0000 C   0  0  1  0  0  0  0  0  0  0  0  0
   -5.6677    1.6488    0.0000 O   0  0  0  0  0  0  0  0  0  0  0  0
   -4.2386    1.6489    0.0000 O   0  0  0  0  0  0  0  0  0  0  0  0
   -2.8095    1.6488    0.0000 O   0  0  0  0  0  0  0  0  0  0  0  0
   -1.3805    1.6489    0.0000 O   0  0  0  0  0  0  0  0  0  0  0  0
    0.0619   -0.8341    0.0000 O   0  0  0  0  0  0  0  0  0  0  0  0
    0.0619    0.8318    0.0000 C   0  0  0  0  0  0  0  0  0  0  0  0
    0.7735    0.4211    0.0000 N   0  0  0  0  0  0  0  0  0  0  0  0
    0.0617    1.6489    0.0000 O   0  0  0  0  0  0  0  0  0  0  0  0
    1.4695    0.8233    0.0000 C   0  0  0  0  0  0  0  0  0  0  0  0
    2.1736    0.4167    0.0000 N   0  0  0  0  0  0  0  0  0  0  0  0
    2.8735    0.8210    0.0000 C   0  0  0  0  0  0  0  0  0  0  0  0
    3.5756    0.4156    0.0000 C   0  0  0  0  0  0  0  0  0  0  0  0
    4.2764    0.8205    0.0000 C   0  0  0  0  0  0  0  0  0  0  0  0
    4.9781    0.4153    0.0000 C   0  0  0  0  0  0  0  0  0  0  0  0
    5.6791    0.8203    0.0000 C   0  0  2  0  0  0  0  0  0  0  0  0
    6.3807    0.4153    0.0000 N   0  0  0  0  0  0  0  0  0  0  0  0
    5.6791    1.6488    0.0000 C   0  0  0  0  0  0  0  0  0  0  0  0
    4.9532    2.0682    0.0000 O   0  0  0  0  0  0  0  0  0  0  0  0
    6.3822    2.0549    0.0000 O   0  0  0  0  0  0  0  0  0  0  0  0
   -4.2386   -1.6512    0.0000 C   0  0  0  0  0  0  0  0  0  0  0  0
   -4.9520   -1.2380    0.0000 O   0  0  0  0  0  0  0  0  0  0  0  0
   -3.5295   -1.2380    0.0000 H   0  0  0  0  0  0  0  0  0  0  0  0
   -2.0950   -1.2387    0.0000 H   0  0  0  0  0  0  0  0  0  0  0  0
   -1.3805   -1.6512    0.0000 N   0  0  0  0  0  0  0  0  0  0  0  0
   -2.1026   -2.0682    0.0000 C   0  0  0  0  0  0  0  0  0  0  0  0
   -0.6735   -2.0595    0.0000 C   0  0  0  0  0  0  0  0  0  0  0  0
   -2.0950    1.2364    0.0000 O   0  0  0  0  0  0  0  0  0  0  0  0
  1  2  2  0  0  0  0
  2  3  1  0  0  0  0
  3  4  2  0  0  0  0
  4  5  1  0  0  0  0
  5  6  2  0  0  0  0
  1  6  1  0  0  0  0
  4  7  1  0  0  0  0
  7  8  1  0  0  0  0
  8  9  1  0  0  0  0
  9 10  1  0  0  0  0
  5 10  1  0  0  0  0
  8 11  2  0  0  0  0
 11 12  1  0  0  0  0
 12 13  1  0  0  0  0
 13 14  1  0  0  0  0
  9 14  1  0  0  0  0
 12 15  1  0  0  0  0
 15 16  1  0  0  0  0
 16 17  2  0  0  0  0
 17 18  1  0  0  0  0
 13 18  1  0  0  0  0
  3 19  1  0  0  0  0
  7 20  2  0  0  0  0
 11 21  1  0  0  0  0
 15 22  2  0  0  0  0
 17 23  1  0  0  0  0
 16 24  1  0  0  0  0
 24 25  1  0  0  0  0
 24 26  2  0  0  0  0
 25 27  1  0  0  0  0
 27 28  1  0  0  0  0
 28 29  1  0  0  0  0
 29 30  1  0  0  0  0
 30 31  1  0  0  0  0
 31 32  1  0  0  0  0
 32 33  1  0  0  0  0
 33 34  1  0  0  0  0
 33 35  1  1  0  0  0
 35 36  2  0  0  0  0
 35 37  1  0  0  0  0
 10 38  1  1  0  0  0
 10 39  1  6  0  0  0
  9 40  1  1  0  0  0
 13 41  1  1  0  0  0
 18 42  1  1  0  0  0
 42 43  1  0  0  0  0
 42 44  1  0  0  0  0
 12 45  1  1  0  0  0
M  END
> <DATABASE_ID>
DB00256

> <DATABASE_NAME>
drugbank

> <SMILES>
[H][C@@]12C[C@@]3([H])C(C(=O)C4=C(O)C=CC=C4[C@@]3(C)O)=C(O)[C@]1(O)C(=O)C(C(=O)NCNCCCC[C@H](N)C(O)=O)=C(O)[C@H]2N(C)C

> <INCHI_IDENTIFIER>
InChI=1S/C29H38N4O10/c1-28(42)13-7-6-9-17(34)18(13)22(35)19-14(28)11-15-21(33(2)3)23(36)20(25(38)29(15,43)24(19)37)26(39)32-12-31-10-5-4-8-16(30)27(40)41/h6-7,9,14-16,21,31,34,36-37,42-43H,4-5,8,10-12,30H2,1-3H3,(H,32,39)(H,40,41)/t14-,15-,16-,21-,28+,29-/m0/s1

> <INCHI_KEY>
AHEVKYYGXVEWNO-UEPZRUIBSA-N

> <FORMULA>
C29H38N4O10

> <MOLECULAR_WEIGHT>
602.6328

> <EXACT_MASS>
602.258793456

> <JCHEM_ACCEPTOR_COUNT>
13

> <JCHEM_ATOM_COUNT>
81

> <JCHEM_AVERAGE_POLARIZABILITY>
62.48271132033949

> <JCHEM_BIOAVAILABILITY>
0

> <JCHEM_DONOR_COUNT>
9

> <JCHEM_FORMAL_CHARGE>
0

> <JCHEM_GHOSE_FILTER>
0

> <JCHEM_IUPAC>
(2S)-6-[({[(4S,4aS,5aS,6S,12aS)-4-(dimethylamino)-3,6,10,12,12a-pentahydroxy-6-methyl-1,11-dioxo-1,4,4a,5,5a,6,11,12a-octahydrotetracen-2-yl]formamido}methyl)amino]-2-aminohexanoic acid

> <ALOGPS_LOGP>
-0.27

> <JCHEM_LOGP>
-7.065616824824305

> <ALOGPS_LOGS>
-2.66

> <JCHEM_MDDR_LIKE_RULE>
1

> <JCHEM_NUMBER_OF_RINGS>
4

> <JCHEM_PHYSIOLOGICAL_CHARGE>
1

> <JCHEM_PKA>
3.4141432966477483

> <JCHEM_PKA_STRONGEST_ACIDIC>
2.5140057550136685

> <JCHEM_PKA_STRONGEST_BASIC>
9.77069618892244

> <JCHEM_POLAR_SURFACE_AREA>
242.98

> <JCHEM_REFRACTIVITY>
154.50959999999998

> <JCHEM_ROTATABLE_BOND_COUNT>
10

> <JCHEM_RULE_OF_FIVE>
0

> <ALOGPS_SOLUBILITY>
1.31e+00 g/l

> <JCHEM_TRADITIONAL_IUPAC>
cetrorelix

> <JCHEM_VEBER_RULE>
0

> <DRUGBANK_ID>
DB00256

> <SECONDARY_ACCESSION_NUMBERS>
APRD00565; EXPT01049

> <DRUG_GROUPS>
approved; investigational

> <GENERIC_NAME>
Lymecycline

> <SYNONYMS>
(+)-N-(5-Amino-5-carboxypentylaminomethyl)-4-dimethylamino-1,4,4a,5,5a,6,11,12a-octahydro-3,6,10,12,12a-pentahydroxy-6-methyl-1,11-dioxonaphthacene-2-carboxamide; Limeciclina; Lymecycline; Lymecyclinum; N-Lysinomethyltetracycline; N2-(((+)-5-Amino-5-carboxypentylamino)methyl)tetracycline; N6-((4-(Dimethylamino)-1,4,4a,5,5a,6,11,12a-octahydro-3,6,10,12,12a-pentahydroxy-6-methyl-1,11-dioxo-2-naphthacenecarboxamido)methyl)lysine; Tetracycline-L-methylene lysine; Tetracycline-L-methylenelysine

> <INTERNATIONAL_BRANDS>
Eficiclina; Tetralisal; Tetralysal

$$$$
